12
12 10
C       1.96181423       1.78442309      -0.00000049
C       0.73612199       1.10976547      -0.00163747
C       0.70753955      -0.28904460      -0.00295434
C       1.90464831      -1.01321037      -0.00263425
C       3.13034016      -0.33855317      -0.00099723
C       3.15892336       1.06025689       0.00031963
H      -0.18996294       1.66998995      -0.00188512
H      -0.24067057      -0.81095532      -0.00422071
H       1.88253641      -2.09534035      -0.00365298
H       4.05643855      -0.89876433      -0.00074954
H       4.10712058       1.58218147       0.00158603
H       1.98392617       2.86655490       0.00101824
