26
1 2 3 4
H      -1.23571000       3.36220000      -0.00121000
H       1.23569000      -3.36224000      -0.00047000
H       1.23571000       3.36219000      -0.00254000
H      -1.23573000      -3.36225000      -0.00019000
C       0.69879000       2.41335000      -0.00151000
C      -0.69878000       2.41338000      -0.00098000
C      -1.40052000       1.20078000      -0.00006000
C      -0.70896000      -0.00001000      -0.00002000
C      -1.40051000      -1.20079000       0.00012000
C      -0.69881000      -2.41341000      -0.00007000
C       0.69877000      -2.41340000      -0.00019000
C       1.40048000      -1.20080000      -0.00009000
C       0.70890000      -0.00002000      -0.00017000
C       1.40048000       1.20073000      -0.00056000
C       2.87396000       1.18990000       0.00046000
O       3.48669000       2.25050000       0.00151000
N       3.53216208      -0.00144369      -0.00373028
C       2.87394000      -1.18999000      -0.00012000
O       3.48664000      -2.25064000      -0.00052000
C      -2.87399000      -1.18997000       0.00016000
O      -3.48670000      -2.25055000      -0.00041000
N      -3.51282000      -0.00000000       0.00091000
C      -2.87398000       1.18994000       0.00095000
O      -3.48670000       2.25056000       0.00182000
H       4.11038823      -0.00248178      -0.83183259
H      -4.09640194       0.00028744      -0.82342733
