6
1
H       0.000000000000       1.145042790000       0.750208830000
C       0.000000000000       0.138569980000       0.355570700000
O       0.000000000000       0.187935770000      -1.074466460000
H       0.882876920000      -0.383123830000       0.697839450000
H      -0.882876940000      -0.383123830000       0.697839450000
H       0.000000000000      -0.705300580000      -1.426986340000